Version 4
SHEET 1 1836 756
WIRE 944 -80 912 -80
WIRE 1056 -80 1008 -80
WIRE 1360 -48 1312 -48
WIRE 1472 -48 1424 -48
WIRE -64 -16 -112 -16
WIRE 400 0 384 0
WIRE 528 0 464 0
WIRE 912 32 912 -80
WIRE 944 32 912 32
WIRE 1056 32 1056 -80
WIRE 1056 32 1024 32
WIRE 1312 32 1312 -48
WIRE 1344 32 1312 32
WIRE 1472 32 1472 -48
WIRE 1472 32 1424 32
WIRE 16 48 -32 48
WIRE 480 48 448 48
WIRE 224 64 192 64
WIRE -32 96 -32 48
WIRE 1136 96 976 96
WIRE 1408 96 1376 96
WIRE -112 112 -112 -16
WIRE -64 112 -112 112
WIRE 448 112 448 48
WIRE 48 128 0 128
WIRE 192 128 192 64
WIRE 192 128 48 128
WIRE 272 128 192 128
WIRE 384 128 384 0
WIRE 384 128 336 128
WIRE 416 128 384 128
WIRE 976 128 976 96
WIRE -224 144 -256 144
WIRE -96 144 -144 144
WIRE -64 144 -96 144
WIRE 528 144 528 0
WIRE 528 144 480 144
WIRE 608 144 608 96
WIRE 608 144 528 144
WIRE 688 144 608 144
WIRE 912 144 912 32
WIRE 912 144 768 144
WIRE 944 144 912 144
WIRE 1376 144 1376 96
WIRE 416 160 368 160
WIRE 1056 160 1056 32
WIRE 1056 160 1008 160
WIRE 1120 160 1056 160
WIRE 1216 160 1184 160
WIRE 1312 160 1312 32
WIRE 1312 160 1296 160
WIRE 1344 160 1312 160
WIRE 336 176 336 128
WIRE 336 176 320 176
WIRE 944 176 912 176
WIRE 1472 176 1472 32
WIRE 1472 176 1408 176
WIRE 1584 176 1472 176
WIRE 1344 192 1312 192
WIRE -32 208 -32 160
WIRE 448 208 448 176
WIRE 976 240 976 192
WIRE 272 256 272 208
WIRE 912 256 912 176
WIRE 1376 256 1376 208
WIRE 1312 272 1312 192
WIRE 368 288 368 160
WIRE 400 288 368 288
WIRE -96 320 -96 144
WIRE -80 320 -96 320
WIRE 48 320 48 128
WIRE 48 320 0 320
WIRE 272 368 272 336
WIRE -256 432 -256 144
WIRE 608 432 608 144
WIRE 608 432 -256 432
WIRE 1104 432 1040 432
WIRE 1392 432 1328 432
WIRE 1536 432 1488 432
WIRE 1328 464 1328 432
WIRE 1040 480 1040 432
WIRE 1488 480 1488 432
WIRE 1040 592 1040 560
WIRE 1328 592 1328 544
WIRE 1488 592 1488 560
FLAG -32 208 0
FLAG 400 288 Vcm
FLAG -64 -16 Vcm
FLAG 16 48 Vdd
FLAG 480 48 Vdd
FLAG 224 64 Sq
FLAG 608 96 Tri
FLAG 272 368 0
FLAG 1136 96 Vcc
FLAG 1408 96 Vcc
FLAG 1584 176 Sig_out
FLAG 1312 272 0
FLAG 1376 256 -Vcc
FLAG 912 256 Vcm
FLAG 976 240 -Vcc
FLAG 1488 592 0
FLAG 1536 432 Vdd
FLAG 448 208 -Vcc
FLAG 1328 592 0
FLAG 1392 432 -Vcc
FLAG 1040 592 0
FLAG 1104 432 Vcm
SYMBOL OpAmps\\opamp2 -32 64 R0
SYMATTR InstName TLC3702
SYMATTR Value ""
SYMBOL OpAmps\\opamp2 448 80 R0
SYMATTR InstName LM6132B
SYMATTR Value ""
SYMBOL res -128 128 R90
WINDOW 0 0 56 VBottom 2
WINDOW 3 32 56 VTop 2
SYMATTR InstName R1
SYMATTR Value 100k
SYMBOL res 16 304 R90
WINDOW 0 0 56 VBottom 2
WINDOW 3 32 56 VTop 2
SYMATTR InstName R2
SYMATTR Value 100k
SYMBOL cap 464 -16 R90
WINDOW 0 0 32 VBottom 2
WINDOW 3 32 32 VTop 2
SYMATTR InstName Ci
SYMATTR Value 33n
SYMBOL res 256 240 R0
SYMATTR InstName Rbias
SYMATTR Value 820
SYMBOL pot 256 112 R0
WINDOW 0 36 32 Left 2
WINDOW 3 36 85 Left 2
SYMATTR InstName Ri
SYMATTR Value 10k
SYMBOL res 784 128 R90
WINDOW 0 0 56 VBottom 2
WINDOW 3 32 56 VTop 2
SYMATTR InstName R3
SYMATTR Value 100k
SYMBOL res 1040 16 R90
WINDOW 0 0 56 VBottom 2
WINDOW 3 32 56 VTop 2
SYMATTR InstName R4
SYMATTR Value 100k
SYMBOL cap 1008 -96 R90
WINDOW 0 0 32 VBottom 2
WINDOW 3 32 32 VTop 2
SYMATTR InstName C1
SYMATTR Value 180n
SYMBOL OpAmps\\opamp2 976 96 R0
SYMATTR InstName U1
SYMATTR Value LM6132B
SYMBOL OpAmps\\opamp2 1376 112 R0
SYMATTR InstName U2
SYMATTR Value LM6132B
SYMBOL res 1312 144 R90
WINDOW 0 0 56 VBottom 2
WINDOW 3 32 56 VTop 2
SYMATTR InstName R7
SYMATTR Value 1k
SYMBOL res 1328 48 R270
WINDOW 0 32 56 VTop 2
WINDOW 3 0 56 VBottom 2
SYMATTR InstName R8
SYMATTR Value 500k
SYMBOL cap 1424 -64 R90
WINDOW 0 0 32 VBottom 2
WINDOW 3 32 32 VTop 2
SYMATTR InstName C2
SYMATTR Value 25n
SYMBOL cap 1184 144 R90
WINDOW 0 0 32 VBottom 2
WINDOW 3 32 32 VTop 2
SYMATTR InstName C3
SYMATTR Value 330n
SYMBOL voltage 1488 464 R0
WINDOW 123 0 0 Left 0
WINDOW 39 0 0 Left 0
SYMATTR InstName V1
SYMATTR Value 12
SYMBOL voltage 1328 560 R180
WINDOW 0 24 96 Left 2
WINDOW 3 24 16 Left 2
WINDOW 123 0 0 Left 0
WINDOW 39 0 0 Left 0
SYMATTR InstName V2
SYMATTR Value 12
SYMBOL voltage 1040 464 R0
WINDOW 123 0 0 Left 0
WINDOW 39 0 0 Left 0
SYMATTR InstName V3
SYMATTR Value 6
TEXT -256 656 Left 2 !.tran 0 5m 0
TEXT -256 608 Left 2 !.inc LM6132B.sub
TEXT -248 584 Left 2 !.inc TLC3702.sub
TEXT 1344 664 Left 2 ;Power Supplies
TEXT 168 -208 Left 6 ;Audible Oscillator Circuit V1.0
RECTANGLE Normal 1600 640 1264 400 2
